RGB Lantern																				
Open Engineering, LLC dba AeroDyne Labs							 							
www.aerodynelabs.com																		
																								

Copyright (c) <2012> <Matthew E. NElson>

Permission is hereby granted, free of charge, to any person obtaining a copy of this software 
and associated documentation files (the "Software"), to deal in the Software without restriction, 
including without limitation the rights to use, copy, modify, merge, publish, distribute, sublicense, 
and/or sell copies of the Software, and to permit persons to whom the Software is furnished to do so, 
subject to the following conditions:

The above copyright notice and this permission notice shall be included in all copies or substantial portions of the Software.

THE SOFTWARE IS PROVIDED "AS IS", WITHOUT WARRANTY OF ANY KIND, EXPRESS OR IMPLIED, INCLUDING BUT NOT
LIMITED TO THE WARRANTIES OF MERCHANTABILITY, FITNESS FOR A PARTICULAR PURPOSE AND NONINFRINGEMENT. 
IN NO EVENT SHALL THE AUTHORS OR COPYRIGHT HOLDERS BE LIABLE FOR ANY CLAIM, DAMAGES OR OTHER LIABILITY, 
WHETHER IN AN ACTION OF CONTRACT, TORT OR OTHERWISE, ARISING FROM, OUT OF OR IN CONNECTION WITH THE 
SOFTWARE OR THE USE OR OTHER DEALINGS IN THE SOFTWARE.

  Pin diagram for 18F2520
Port A				Port B				Port C			
RA0 - PWR LED		RB0 - Mode select	RC0
RA1 - Light sensor	RB1 - Mode select	RC1
RA2 - Temp Sensor	RB2 - Mode select   RC2
RA3 - Humidity		RB3					RC3 - I2C Clk
RA4 - Pressure		RB4					RC4 - I2C Data
RA5 -				RB5					RC5
RA6 -				RB6 - ICSP			RC6 - Serial TX
RA7 -				RB7 - ICSP			RC7 - Serial RX   */


Revision: 1.0																				
																						
Revision History:																			
	1.0 - Initial design/program - MEN


